<?xml version="1.0" encoding="UTF-8"?>

<!-- generated on 2023-04-11 13:53:44 by Eclipse SUMO netconvert Version 1.16.0
<configuration xmlns:xsi="http://www.w3.org/2001/XMLSchema-instance" xsi:noNamespaceSchemaLocation="http://sumo.dlr.de/xsd/netconvertConfiguration.xsd">

    <input>
        <osm-files value="map.osm"/>
    </input>

    <output>
        <output-file value="raw_sumo.net.xml"/>
    </output>

    <projection>
        <proj.utm value="true"/>
    </projection>

    <junctions>
        <junctions.join value="True"/>
    </junctions>

</configuration>
-->

<net version="1.16" junctionCornerDetail="5" limitTurnSpeed="5.50" xmlns:xsi="http://www.w3.org/2001/XMLSchema-instance" xsi:noNamespaceSchemaLocation="http://sumo.dlr.de/xsd/net_file.xsd">

    <location netOffset="-212234.12,-2511333.38" convBoundary="0.00,0.00,21614.40,5614.92" origBoundary="114.199124,22.684840,114.409319,22.736369" projParameter="+proj=utm +zone=50 +ellps=WGS84 +datum=WGS84 +units=m +no_defs"/>

    <type id="highway.bridleway" priority="1" numLanes="1" speed="2.78" allow="pedestrian" oneway="1" width="2.00"/>
    <type id="highway.bus_guideway" priority="1" numLanes="1" speed="27.78" allow="bus" oneway="1"/>
    <type id="highway.cycleway" priority="1" numLanes="1" speed="5.56" allow="bicycle" oneway="0" width="1.00"/>
    <type id="highway.footway" priority="1" numLanes="1" speed="2.78" allow="pedestrian" oneway="1" width="2.00"/>
    <type id="highway.ford" priority="1" numLanes="1" speed="2.78" allow="army" oneway="0"/>
    <type id="highway.living_street" priority="2" numLanes="1" speed="2.78" disallow="tram rail_urban rail rail_electric rail_fast ship" oneway="0"/>
    <type id="highway.motorway" priority="14" numLanes="2" speed="39.44" allow="private emergency authority army vip passenger hov taxi bus coach delivery truck trailer motorcycle evehicle custom1 custom2" oneway="1"/>
    <type id="highway.motorway_link" priority="9" numLanes="1" speed="22.22" allow="private emergency authority army vip passenger hov taxi bus coach delivery truck trailer motorcycle evehicle custom1 custom2" oneway="1"/>
    <type id="highway.path" priority="1" numLanes="1" speed="5.56" allow="pedestrian bicycle" oneway="0" width="2.00"/>
    <type id="highway.pedestrian" priority="1" numLanes="1" speed="2.78" allow="pedestrian" oneway="1" width="2.00"/>
    <type id="highway.primary" priority="12" numLanes="2" speed="27.78" disallow="tram rail_urban rail rail_electric rail_fast ship" oneway="0"/>
    <type id="highway.primary_link" priority="7" numLanes="1" speed="22.22" disallow="tram rail_urban rail rail_electric rail_fast ship" oneway="0"/>
    <type id="highway.raceway" priority="15" numLanes="2" speed="83.33" allow="vip" oneway="0"/>
    <type id="highway.residential" priority="3" numLanes="1" speed="13.89" disallow="tram rail_urban rail rail_electric rail_fast ship" oneway="0"/>
    <type id="highway.secondary" priority="11" numLanes="1" speed="27.78" disallow="tram rail_urban rail rail_electric rail_fast ship" oneway="0"/>
    <type id="highway.secondary_link" priority="6" numLanes="1" speed="22.22" disallow="tram rail_urban rail rail_electric rail_fast ship" oneway="0"/>
    <type id="highway.service" priority="1" numLanes="1" speed="5.56" allow="pedestrian delivery bicycle" oneway="0"/>
    <type id="highway.stairs" priority="1" numLanes="1" speed="1.39" allow="pedestrian" oneway="1" width="2.00"/>
    <type id="highway.step" priority="1" numLanes="1" speed="1.39" allow="pedestrian" oneway="1" width="2.00"/>
    <type id="highway.steps" priority="1" numLanes="1" speed="1.39" allow="pedestrian" oneway="1" width="2.00"/>
    <type id="highway.tertiary" priority="10" numLanes="1" speed="22.22" disallow="tram rail_urban rail rail_electric rail_fast ship" oneway="0"/>
    <type id="highway.tertiary_link" priority="5" numLanes="1" speed="22.22" disallow="tram rail_urban rail rail_electric rail_fast ship" oneway="0"/>
    <type id="highway.track" priority="1" numLanes="1" speed="5.56" allow="pedestrian motorcycle moped bicycle" oneway="0"/>
    <type id="highway.trunk" priority="13" numLanes="2" speed="27.78" disallow="pedestrian bicycle tram rail_urban rail rail_electric rail_fast ship" oneway="0"/>
    <type id="highway.trunk_link" priority="8" numLanes="1" speed="22.22" disallow="pedestrian bicycle tram rail_urban rail rail_electric rail_fast ship" oneway="0"/>
    <type id="highway.unclassified" priority="4" numLanes="1" speed="13.89" disallow="tram rail_urban rail rail_electric rail_fast ship" oneway="0"/>
    <type id="highway.unsurfaced" priority="1" numLanes="1" speed="8.33" disallow="tram rail_urban rail rail_electric rail_fast ship" oneway="0"/>
    <type id="railway.highspeed" priority="21" numLanes="1" speed="69.44" allow="rail_fast" oneway="1"/>
    <type id="railway.light_rail" priority="19" numLanes="1" speed="27.78" allow="rail_urban" oneway="1"/>
    <type id="railway.preserved" priority="16" numLanes="1" speed="27.78" allow="rail" oneway="1"/>
    <type id="railway.rail" priority="20" numLanes="1" speed="44.44" allow="rail" oneway="1"/>
    <type id="railway.subway" priority="18" numLanes="1" speed="27.78" allow="rail_urban" oneway="1"/>
    <type id="railway.tram" priority="17" numLanes="1" speed="13.89" allow="tram" oneway="1"/>

    <edge id=":10293731843_0" function="internal">
        <lane id=":10293731843_0_0" index="0" allow="pedestrian delivery bicycle" speed="4.71" length="5.66" shape="1601.38,796.86 1600.67,795.34 1599.75,794.65 1598.59,794.78 1597.22,795.73"/>
    </edge>
    <edge id=":10293731843_1" function="internal">
        <lane id=":10293731843_1_0" index="0" allow="pedestrian delivery bicycle" speed="3.65" length="4.67" shape="1601.38,796.86 1601.79,795.47 1602.44,794.86 1603.32,795.00 1604.44,795.91"/>
    </edge>
    <edge id=":10293731843_2" function="internal">
        <lane id=":10293731843_2_0" index="0" allow="pedestrian delivery bicycle" speed="7.13" length="7.31" shape="1604.66,788.92 1603.95,789.99 1603.67,791.51 1603.84,793.49 1604.44,795.91"/>
    </edge>
    <edge id=":10293731843_3" function="internal">
        <lane id=":10293731843_3_0" index="0" disallow="tram rail_urban rail rail_electric rail_fast ship" speed="22.22" length="10.08" shape="1604.66,788.92 1597.22,795.73"/>
    </edge>
    <edge id=":10293731851_0" function="internal">
        <lane id=":10293731851_0_0" index="0" allow="pedestrian bicycle" speed="4.28" length="4.48" width="1.00" shape="1604.37,806.58 1603.84,805.54 1603.10,805.14 1602.14,805.39 1600.97,806.29"/>
    </edge>
    <edge id=":10293731851_1" function="internal">
        <lane id=":10293731851_1_0" index="0" allow="pedestrian delivery bicycle" speed="5.56" length="8.36" shape="1604.37,806.58 1601.91,798.59"/>
    </edge>
    <edge id=":10293731851_2" function="internal">
        <lane id=":10293731851_2_0" index="0" allow="pedestrian bicycle" speed="5.56" length="10.01" width="1.00" shape="1604.37,806.58 1604.17,804.57 1604.78,802.47 1606.19,800.27 1608.40,797.97"/>
    </edge>
    <edge id=":10293731851_3" function="internal">
        <lane id=":10293731851_3_0" index="0" allow="pedestrian delivery bicycle" speed="3.65" length="4.67" shape="1604.37,806.58 1604.78,805.19 1605.43,804.58 1606.31,804.72 1607.43,805.64"/>
    </edge>
    <edge id=":10293731851_4" function="internal">
        <lane id=":10293731851_4_0" index="0" allow="pedestrian bicycle" speed="5.56" length="7.57" width="1.00" shape="1609.09,798.69 1607.87,800.13 1607.19,801.76 1607.04,803.60 1607.43,805.64"/>
    </edge>
    <edge id=":10293731851_5" function="internal">
        <lane id=":10293731851_5_0" index="0" allow="pedestrian bicycle" speed="5.56" length="11.12" width="1.00" shape="1609.09,798.69 1600.97,806.29"/>
    </edge>
    <edge id=":10293731851_6" function="internal">
        <lane id=":10293731851_6_0" index="0" allow="pedestrian bicycle" speed="5.51" length="9.17" width="1.00" shape="1609.09,798.69 1606.54,800.57 1604.50,801.18 1602.95,800.52 1601.91,798.59"/>
    </edge>
    <edge id=":10293731851_7" function="internal">
        <lane id=":10293731851_7_0" index="0" allow="pedestrian bicycle" speed="2.04" length="1.46" width="1.00" shape="1609.09,798.69 1608.65,798.77 1608.38,798.68 1608.30,798.41 1608.40,797.97"/>
    </edge>
    <edge id=":10293731851_8" function="internal">
        <lane id=":10293731851_8_0" index="0" allow="pedestrian bicycle" speed="4.30" length="4.46" width="1.00" shape="1604.97,797.64 1605.49,798.66 1606.24,799.06 1607.21,798.83 1608.40,797.97"/>
    </edge>
    <edge id=":10293731851_9" function="internal">
        <lane id=":10293731851_9_0" index="0" allow="pedestrian delivery bicycle" speed="5.56" length="8.36" shape="1604.97,797.64 1607.43,805.64"/>
    </edge>
    <edge id=":10293731851_10" function="internal">
        <lane id=":10293731851_10_0" index="0" allow="pedestrian bicycle" speed="5.56" length="9.98" width="1.00" shape="1604.97,797.64 1605.15,799.59 1604.55,801.67 1603.15,803.91 1600.97,806.29"/>
    </edge>
    <edge id=":10293731851_11" function="internal">
        <lane id=":10293731851_11_0" index="0" allow="pedestrian delivery bicycle" speed="3.65" length="4.67" shape="1604.97,797.64 1604.56,799.03 1603.91,799.64 1603.03,799.50 1601.91,798.59"/>
    </edge>
    <edge id=":10293731851_12" function="internal">
        <lane id=":10293731851_12_0" index="0" allow="pedestrian bicycle" speed="5.56" length="7.57" width="1.00" shape="1600.28,805.56 1601.48,804.08 1602.15,802.43 1602.29,800.59 1601.91,798.59"/>
    </edge>
    <edge id=":10293731851_13" function="internal">
        <lane id=":10293731851_13_0" index="0" allow="pedestrian bicycle" speed="5.56" length="11.12" width="1.00" shape="1600.28,805.56 1608.40,797.97"/>
    </edge>
    <edge id=":10293731851_14" function="internal">
        <lane id=":10293731851_14_0" index="0" allow="pedestrian bicycle" speed="5.49" length="9.27" width="1.00" shape="1600.28,805.56 1602.79,803.60 1604.82,802.96 1606.37,803.64 1607.43,805.64"/>
    </edge>
    <edge id=":10293731851_15" function="internal">
        <lane id=":10293731851_15_0" index="0" allow="pedestrian bicycle" speed="2.04" length="1.46" width="1.00" shape="1600.28,805.56 1600.72,805.48 1600.99,805.58 1601.07,805.85 1600.97,806.29"/>
    </edge>
    <edge id=":10698616698_0" function="internal">
        <lane id=":10698616698_0_0" index="0" allow="pedestrian bicycle" speed="5.94" length="6.21" width="1.00" shape="2817.85,1209.52 2816.78,1208.23 2815.54,1207.45 2814.11,1207.16 2812.51,1207.37"/>
    </edge>
    <edge id=":10698616698_1" function="internal">
        <lane id=":10698616698_1_0" index="0" allow="pedestrian bicycle" speed="5.56" length="10.32" width="1.00" shape="2817.85,1209.52 2812.31,1200.81"/>
    </edge>
    <edge id=":10698616698_2" function="internal">
        <lane id=":10698616698_2_0" index="0" allow="pedestrian bicycle" speed="5.55" length="8.62" width="1.00" shape="2817.85,1209.52 2816.48,1206.86 2816.14,1204.80 2816.81,1203.32 2818.50,1202.42"/>
    </edge>
    <edge id=":10698616698_3" function="internal">
        <lane id=":10698616698_3_0" index="0" allow="pedestrian bicycle" speed="2.04" length="1.46" width="1.00" shape="2817.85,1209.52 2817.86,1209.07 2818.00,1208.83 2818.28,1208.80 2818.69,1208.98"/>
    </edge>
    <edge id=":10698616698_4" function="internal">
        <lane id=":10698616698_4_0" index="0" allow="pedestrian bicycle" speed="4.38" length="4.33" width="1.00" shape="2819.34,1205.51 2818.38,1205.98 2817.96,1206.71 2818.06,1207.71 2818.69,1208.98"/>
    </edge>
    <edge id=":10698616698_5" function="internal">
        <lane id=":10698616698_5_0" index="0" disallow="tram rail_urban rail rail_electric rail_fast ship" speed="13.89" length="7.07" shape="2819.34,1205.51 2812.51,1207.37"/>
    </edge>
    <edge id=":10698616698_6" function="internal">
        <lane id=":10698616698_6_0" index="0" allow="pedestrian bicycle" speed="7.32" length="2.12" width="1.00" shape="2819.34,1205.51 2817.61,1205.57 2817.25,1205.41"/>
    </edge>
    <edge id=":10698616698_14" function="internal">
        <lane id=":10698616698_14_0" index="0" allow="pedestrian bicycle" speed="7.32" length="6.89" width="1.00" shape="2817.25,1205.41 2815.86,1204.80 2814.09,1203.22 2812.31,1200.81"/>
    </edge>
    <edge id=":10698616698_7" function="internal">
        <lane id=":10698616698_7_0" index="0" allow="pedestrian bicycle" speed="5.94" length="6.22" width="1.00" shape="2813.15,1200.27 2814.22,1201.56 2815.47,1202.35 2816.89,1202.63 2818.50,1202.42"/>
    </edge>
    <edge id=":10698616698_8" function="internal">
        <lane id=":10698616698_8_0" index="0" allow="pedestrian bicycle" speed="5.56" length="10.32" width="1.00" shape="2813.15,1200.27 2818.69,1208.98"/>
    </edge>
    <edge id=":10698616698_9" function="internal">
        <lane id=":10698616698_9_0" index="0" allow="pedestrian bicycle" speed="5.55" length="8.62" width="1.00" shape="2813.15,1200.27 2814.52,1202.93 2814.87,1205.00 2814.20,1206.48 2812.51,1207.37"/>
    </edge>
    <edge id=":10698616698_10" function="internal">
        <lane id=":10698616698_10_0" index="0" allow="pedestrian bicycle" speed="2.04" length="1.46" width="1.00" shape="2813.15,1200.27 2813.14,1200.73 2813.00,1200.96 2812.72,1200.99 2812.31,1200.81"/>
    </edge>
    <edge id=":10698616698_11" function="internal">
        <lane id=":10698616698_11_0" index="0" allow="pedestrian bicycle" speed="4.38" length="4.33" width="1.00" shape="2811.67,1204.28 2812.62,1203.82 2813.04,1203.08 2812.94,1202.08 2812.31,1200.81"/>
    </edge>
    <edge id=":10698616698_12" function="internal">
        <lane id=":10698616698_12_0" index="0" disallow="tram rail_urban rail rail_electric rail_fast ship" speed="13.89" length="7.08" shape="2811.67,1204.28 2818.50,1202.42"/>
    </edge>
    <edge id=":10698616698_13" function="internal">
        <lane id=":10698616698_13_0" index="0" allow="pedestrian bicycle" speed="7.31" length="2.12" width="1.00" shape="2811.67,1204.28 2813.40,1204.23 2813.75,1204.38"/>
    </edge>
    <edge id=":10698616698_15" function="internal">
        <lane id=":10698616698_15_0" index="0" allow="pedestrian bicycle" speed="7.31" length="6.88" width="1.00" shape="2813.75,1204.38 2815.14,1204.99 2816.91,1206.57 2818.69,1208.98"/>
    </edge>
    <edge id=":10727860053_0" function="internal">
        <lane id=":10727860053_0_0" index="0" disallow="tram rail_urban rail rail_electric rail_fast ship" speed="13.89" length="12.70" shape="1946.48,765.47 1943.34,766.65 1940.87,768.23 1938.63,770.21 1936.16,772.59"/>
    </edge>
    <edge id=":10727860053_1" function="internal">
        <lane id=":10727860053_1_0" index="0" disallow="tram rail_urban rail rail_electric rail_fast ship" speed="9.49" length="3.69" shape="1946.48,765.47 1942.83,766.07"/>
    </edge>
    <edge id=":10727860053_2" function="internal">
        <lane id=":10727860053_2_0" index="0" disallow="tram rail_urban rail rail_electric rail_fast ship" speed="3.67" length="1.46" shape="1946.48,765.47 1945.03,765.25"/>
    </edge>
    <edge id=":10727860053_9" function="internal">
        <lane id=":10727860053_9_0" index="0" disallow="tram rail_urban rail rail_electric rail_fast ship" speed="9.49" length="9.55" shape="1942.83,766.07 1939.59,765.77 1936.75,764.58 1934.30,762.49"/>
    </edge>
    <edge id=":10727860053_10" function="internal">
        <lane id=":10727860053_10_0" index="0" disallow="tram rail_urban rail rail_electric rail_fast ship" speed="3.67" length="3.28" shape="1945.03,765.25 1944.32,764.69 1944.34,763.78 1945.10,762.53"/>
    </edge>
    <edge id=":10727860053_3" function="internal">
        <lane id=":10727860053_3_0" index="0" disallow="tram rail_urban rail rail_electric rail_fast ship" speed="7.98" length="9.17" shape="1936.70,760.37 1938.41,761.85 1940.39,762.70 1942.61,762.93 1945.10,762.53"/>
    </edge>
    <edge id=":10727860053_4" function="internal">
        <lane id=":10727860053_4_0" index="0" disallow="tram rail_urban rail rail_electric rail_fast ship" speed="8.01" length="13.84" shape="1936.70,760.37 1938.78,763.52 1939.38,766.61 1938.51,769.63 1936.16,772.59"/>
    </edge>
    <edge id=":10727860053_5" function="internal">
        <lane id=":10727860053_5_0" index="0" disallow="tram rail_urban rail rail_electric rail_fast ship" speed="3.65" length="4.67" shape="1936.70,760.37 1936.90,761.80 1936.56,762.63 1935.70,762.86 1934.30,762.49"/>
    </edge>
    <edge id=":10727860053_6" function="internal">
        <lane id=":10727860053_6_0" index="0" disallow="tram rail_urban rail rail_electric rail_fast ship" speed="6.51" length="8.81" shape="1933.96,770.26 1935.46,768.38 1936.01,766.46 1935.63,764.49 1934.30,762.49"/>
    </edge>
    <edge id=":10727860053_7" function="internal">
        <lane id=":10727860053_7_0" index="0" disallow="tram rail_urban rail rail_electric rail_fast ship" speed="13.89" length="13.72" shape="1933.96,770.26 1936.55,767.79 1939.08,765.60 1941.83,763.81 1945.10,762.53"/>
    </edge>
    <edge id=":10727860053_8" function="internal">
        <lane id=":10727860053_8_0" index="0" disallow="tram rail_urban rail rail_electric rail_fast ship" speed="3.65" length="1.44" shape="1933.96,770.26 1935.38,770.02"/>
    </edge>
    <edge id=":10727860053_11" function="internal">
        <lane id=":10727860053_11_0" index="0" disallow="tram rail_urban rail rail_electric rail_fast ship" speed="3.65" length="3.23" shape="1935.38,770.02 1936.22,770.32 1936.48,771.18 1936.16,772.59"/>
    </edge>
    <edge id=":10727860054_0" function="internal">
        <lane id=":10727860054_0_0" index="0" disallow="tram rail_urban rail rail_electric rail_fast ship" speed="6.48" length="9.03" shape="1804.10,615.22 1802.21,613.61 1800.27,613.00 1798.27,613.39 1796.21,614.77"/>
    </edge>
    <edge id=":10727860054_1" function="internal">
        <lane id=":10727860054_1_0" index="0" disallow="tram rail_urban rail rail_electric rail_fast ship" speed="3.65" length="4.67" shape="1804.10,615.22 1803.90,613.79 1804.24,612.96 1805.10,612.73 1806.50,613.10"/>
    </edge>
    <edge id=":10727860054_2" function="internal">
        <lane id=":10727860054_2_0" index="0" disallow="tram rail_urban rail rail_electric rail_fast ship" speed="6.59" length="9.12" shape="1806.81,605.06 1805.26,606.98 1804.70,608.96 1805.11,611.00 1806.50,613.10"/>
    </edge>
    <edge id=":10727860054_3" function="internal">
        <lane id=":10727860054_3_0" index="0" disallow="tram rail_urban rail rail_electric rail_fast ship" speed="22.22" length="14.38" shape="1806.81,605.06 1796.21,614.77"/>
    </edge>
    <edge id=":10727860058_0" function="internal">
        <lane id=":10727860058_0_0" index="0" disallow="tram rail_urban rail rail_electric rail_fast ship" speed="5.60" length="9.33" shape="1977.14,769.35 1979.65,770.70 1981.47,770.66 1982.59,769.24 1983.03,766.42"/>
    </edge>
    <edge id=":10727860058_1" function="internal">
        <lane id=":10727860058_1_0" index="0" disallow="tram rail_urban rail rail_electric rail_fast ship" speed="3.65" length="4.67" shape="1977.14,769.35 1977.65,770.70 1977.51,771.58 1976.72,772.00 1975.28,771.95"/>
    </edge>
    <edge id=":10727860058_2" function="internal">
        <lane id=":10727860058_2_0" index="0" disallow="tram rail_urban rail rail_electric rail_fast ship" speed="10.24" length="13.01" shape="1982.62,782.15 1982.21,779.70 1980.85,777.18 1978.54,774.60 1975.28,771.95"/>
    </edge>
    <edge id=":10727860058_3" function="internal">
        <lane id=":10727860058_3_0" index="0" disallow="tram rail_urban rail rail_electric rail_fast ship" speed="27.78" length="15.73" shape="1982.62,782.15 1983.03,766.42"/>
    </edge>
    <edge id=":10744658666_0" function="internal">
        <lane id=":10744658666_0_0" index="0" allow="bicycle" speed="5.56" length="0.10" width="1.00" shape="2317.32,944.25 2317.38,944.19"/>
    </edge>
    <edge id=":10744658666_1" function="internal">
        <lane id=":10744658666_1_0" index="0" allow="pedestrian bicycle" speed="2.04" length="0.73" width="1.00" shape="2317.32,944.25 2316.87,944.29 2316.61,944.17"/>
    </edge>
    <edge id=":10744658666_3" function="internal">
        <lane id=":10744658666_3_0" index="0" allow="pedestrian bicycle" speed="2.04" length="0.73" width="1.00" shape="2316.61,944.17 2316.56,943.90 2316.70,943.47"/>
    </edge>
    <edge id=":10744658666_2" function="internal">
        <lane id=":10744658666_2_0" index="0" allow="bicycle" speed="5.56" length="0.10" width="1.00" shape="2316.63,943.53 2316.70,943.47"/>
    </edge>
    <edge id=":1300790369_0" function="internal">
        <lane id=":1300790369_0_0" index="0" disallow="tram rail_urban rail rail_electric rail_fast ship" speed="3.65" length="4.67" shape="2833.88,1196.30 2835.31,1196.54 2836.00,1197.11 2835.96,1198.00 2835.19,1199.22"/>
    </edge>
    <edge id=":2282628153_0" function="internal">
        <lane id=":2282628153_0_0" index="0" allow="pedestrian delivery bicycle" speed="4.91" length="5.16" shape="1536.47,1642.37 1537.80,1642.93 1538.94,1642.89 1539.89,1642.26 1540.65,1641.03"/>
    </edge>
    <edge id=":2282628153_1" function="internal">
        <lane id=":2282628153_1_0" index="0" allow="pedestrian delivery bicycle" speed="3.65" length="4.67" shape="1536.47,1642.37 1537.09,1643.68 1537.03,1644.57 1536.27,1645.05 1534.83,1645.12"/>
    </edge>
    <edge id=":2282628153_2" function="internal">
        <lane id=":2282628153_2_0" index="0" allow="pedestrian delivery bicycle" speed="5.82" length="5.74" shape="1537.38,1649.77 1537.53,1648.49 1537.15,1647.29 1536.25,1646.17 1534.83,1645.12"/>
    </edge>
    <edge id=":2282628153_3" function="internal">
        <lane id=":2282628153_3_0" index="0" disallow="tram rail_urban rail rail_electric rail_fast ship" speed="27.78" length="9.34" shape="1537.38,1649.77 1538.21,1647.12 1538.84,1645.33 1539.55,1643.57 1540.65,1641.03"/>
    </edge>
    <edge id=":2282647886_0" function="internal">
        <lane id=":2282647886_0_0" index="0" disallow="pedestrian bicycle tram rail_urban rail rail_electric rail_fast ship" speed="25.00" length="27.24" shape="2385.73,841.24 2404.95,821.93"/>
    </edge>
    <edge id=":2282647886_1" function="internal">
        <lane id=":2282647886_1_0" index="0" disallow="tram rail_urban rail rail_electric rail_fast ship" speed="27.78" length="27.24" shape="2385.73,841.24 2407.20,824.47"/>
    </edge>
    <edge id=":2282647898_0" function="internal">
        <lane id=":2282647898_0_0" index="0" disallow="pedestrian bicycle tram rail_urban rail rail_electric rail_fast ship" speed="25.00" length="14.05" shape="2364.29,892.12 2353.48,901.10"/>
    </edge>
    <edge id=":2282647898_1" function="internal">
        <lane id=":2282647898_1_0" index="0" disallow="tram rail_urban rail rail_electric rail_fast ship" speed="27.78" length="14.29" shape="2361.81,889.38 2359.14,892.70 2357.75,895.35 2356.31,897.94 2353.48,901.10"/>
        <lane id=":2282647898_1_1" index="1" disallow="tram rail_urban rail rail_electric rail_fast ship" speed="27.78" length="14.29" shape="2359.52,887.15 2356.88,890.43 2355.52,893.05 2354.11,895.62 2351.32,898.75"/>
        <lane id=":2282647898_1_2" index="2" disallow="tram rail_urban rail rail_electric rail_fast ship" speed="27.78" length="14.29" shape="2357.23,884.92 2354.62,888.16 2353.29,890.76 2351.90,893.30 2349.15,896.39"/>
    </edge>
    <edge id=":2300349941_0" function="internal">
        <lane id=":2300349941_0_0" index="0" disallow="tram rail_urban rail rail_electric rail_fast ship" speed="3.65" length="4.67" shape="764.08,177.65 763.84,176.23 764.14,175.39 765.00,175.13 766.41,175.45"/>
    </edge>
    <edge id=":2462979740_0" function="internal">
        <lane id=":2462979740_0_0" index="0" disallow="tram rail_urban rail rail_electric rail_fast ship" speed="3.65" length="4.67" shape="2674.72,1854.14 2674.76,1855.58 2674.34,1856.37 2673.46,1856.51 2672.11,1855.99"/>
    </edge>
    <edge id=":2462996376_0" function="internal">
        <lane id=":2462996376_0_0" index="0" disallow="tram rail_urban rail rail_electric rail_fast ship" speed="13.89" length="5.36" shape="1917.59,1546.51 1916.53,1547.70 1915.81,1548.53 1915.23,1549.45 1914.58,1550.89"/>
    </edge>
    <edge id=":2462996376_1" function="internal">
        <lane id=":2462996376_1_0" index="0" disallow="tram rail_urban rail rail_electric rail_fast ship" speed="5.33" length="8.39" shape="1917.59,1546.51 1917.10,1545.69 1916.64,1543.07 1916.26,1540.13 1915.99,1538.34"/>
    </edge>
    <edge id=":2462996376_2" function="internal">
        <lane id=":2462996376_2_0" index="0" disallow="tram rail_urban rail rail_electric rail_fast ship" speed="13.71" length="12.52" shape="1911.61,1549.69 1913.27,1546.64 1914.97,1544.09 1916.10,1541.50 1915.99,1538.34"/>
    </edge>
    <edge id=":2462996376_3" function="internal">
        <lane id=":2462996376_3_0" index="0" disallow="tram rail_urban rail rail_electric rail_fast ship" speed="3.65" length="4.67" shape="1911.61,1549.69 1912.81,1548.88 1913.70,1548.80 1914.29,1549.47 1914.58,1550.89"/>
    </edge>
    <edge id=":2462996388_0" function="internal">
        <lane id=":2462996388_0_0" index="0" disallow="tram rail_urban rail rail_electric rail_fast ship" speed="25.00" length="17.64" shape="1955.98,1561.17 1951.83,1557.28 1948.09,1554.86 1944.64,1553.21 1941.32,1551.63"/>
    </edge>
    <edge id=":2462996388_1" function="internal">
        <lane id=":2462996388_1_0" index="0" disallow="tram rail_urban rail rail_electric rail_fast ship" speed="27.78" length="17.68" shape="1955.98,1561.17 1944.09,1548.09"/>
        <lane id=":2462996388_1_1" index="1" disallow="tram rail_urban rail rail_electric rail_fast ship" speed="27.78" length="17.68" shape="1958.35,1559.02 1946.46,1545.94"/>
        <lane id=":2462996388_1_2" index="2" disallow="tram rail_urban rail rail_electric rail_fast ship" speed="27.78" length="17.68" shape="1960.72,1556.86 1948.83,1543.78"/>
        <lane id=":2462996388_1_3" index="3" disallow="tram rail_urban rail rail_electric rail_fast ship" speed="27.78" length="17.68" shape="1963.09,1554.71 1951.20,1541.63"/>
    </edge>
    <edge id=":2462996393_0" function="internal">
        <lane id=":2462996393_0_0" index="0" disallow="tram rail_urban rail rail_electric rail_fast ship" speed="25.00" length="16.03" shape="1910.57,1517.93 1909.44,1514.64 1908.34,1511.52 1906.61,1508.23 1903.59,1504.42"/>
        <lane id=":2462996393_0_1" index="1" disallow="tram rail_urban rail rail_electric rail_fast ship" speed="25.00" length="16.03" shape="1910.57,1517.93 1909.86,1514.36 1909.66,1510.59 1908.75,1506.57 1905.94,1502.24"/>
    </edge>
    <edge id=":2462996393_2" function="internal">
        <lane id=":2462996393_2_0" index="0" disallow="tram rail_urban rail rail_electric rail_fast ship" speed="27.78" length="15.34" shape="1914.44,1515.46 1903.59,1504.42"/>
        <lane id=":2462996393_2_1" index="1" disallow="tram rail_urban rail rail_electric rail_fast ship" speed="27.78" length="15.34" shape="1916.72,1513.22 1905.94,1502.24"/>
        <lane id=":2462996393_2_2" index="2" disallow="tram rail_urban rail rail_electric rail_fast ship" speed="27.78" length="15.34" shape="1919.01,1510.97 1908.28,1500.07"/>
        <lane id=":2462996393_2_3" index="3" disallow="tram rail_urban rail rail_electric rail_fast ship" speed="27.78" length="15.34" shape="1921.29,1508.73 1910.63,1497.89"/>
    </edge>
    <edge id=":2463041717_0" function="internal">
        <lane id=":2463041717_0_0" index="0" allow="pedestrian bicycle" speed="5.56" length="5.01" width="1.00" shape="2430.12,780.97 2426.47,784.40"/>
    </edge>
    <edge id=":2463041717_1" function="internal">
        <lane id=":2463041717_1_0" index="0" allow="pedestrian bicycle" speed="2.04" length="1.24" width="1.00" shape="2430.12,780.97 2429.67,781.04 2429.41,780.94 2429.33,780.67 2429.38,780.45"/>
    </edge>
    <edge id=":2463041717_4" function="internal">
        <lane id=":2463041717_4_0" index="0" allow="pedestrian bicycle" speed="2.04" length="0.22" width="1.00" shape="2429.38,780.45 2429.43,780.23"/>
    </edge>
    <edge id=":2463041717_2" function="internal">
        <lane id=":2463041717_2_0" index="0" allow="pedestrian bicycle" speed="5.56" length="5.02" width="1.00" shape="2425.78,783.68 2429.43,780.23"/>
    </edge>
    <edge id=":2463041717_3" function="internal">
        <lane id=":2463041717_3_0" index="0" allow="pedestrian bicycle" speed="2.04" length="1.25" width="1.00" shape="2425.78,783.68 2426.22,783.60 2426.49,783.70 2426.57,783.96 2426.52,784.20"/>
    </edge>
    <edge id=":2463041717_5" function="internal">
        <lane id=":2463041717_5_0" index="0" allow="pedestrian bicycle" speed="2.04" length="0.21" width="1.00" shape="2426.52,784.20 2426.47,784.40"/>
    </edge>
    <edge id=":2463041719_0" function="internal">
        <lane id=":2463041719_0_0" index="0" allow="pedestrian bicycle" speed="2.04" length="1.46" width="1.00" shape="2491.44,713.19 2491.86,713.03 2492.13,713.08 2492.26,713.33 2492.24,713.78"/>
    </edge>
    <edge id=":2463041728_0" function="internal">
        <lane id=":2463041728_0_0" index="0" allow="pedestrian bicycle" speed="5.05" length="4.67" width="1.00" shape="2318.47,890.54 2317.55,889.97 2316.55,889.88 2315.47,890.26 2314.31,891.12"/>
    </edge>
    <edge id=":2463041728_1" function="internal">
        <lane id=":2463041728_1_0" index="0" disallow="tram rail_urban rail rail_electric rail_fast ship" speed="13.89" length="5.53" shape="2318.47,890.54 2314.38,886.81"/>
    </edge>
    <edge id=":2463041728_2" function="internal">
        <lane id=":2463041728_2_0" index="0" allow="pedestrian bicycle" speed="5.99" length="1.72" width="1.00" shape="2318.47,890.54 2317.68,889.28 2317.70,889.04"/>
    </edge>
    <edge id=":2463041728_14" function="internal">