<routes>
    <interval begin="0" end="100">
        <flow id="00" from="1125790983#0" to="1125597092#1" number="50"/>
        <flow id="01" from="1125695391#0" to="1125695392#7" number="50"/>
    </interval>

    <interval begin="50" end="150">
        <flow id="11" from="1125678574" to="1125597093#1" number="50"/>
        <flow id="12" from="1125691753#1" to="219060439#3" number="50"/>
    </interval>
</routes>

